$DATA1 SOURCE='PrimeSim HSPICE' VERSION='U-2023.03-SP2 linux6' PARAM_COUNT=0
.TITLE '*********************************************'
 gain             temper           alter#          
  -32.7920          25.0000        1               
